Travis150/Travis150_Electric_Data.aux
DATA (PWCaseInformation, [Selected])
{
"NO "
}
DATA (Owner, [OwnerNum,OwnerName,DataMaintainerAssign])
{
       1 "1" ""
}
DATA (Area, [AreaNum,AreaName,SAName,BGReportLimits,BGReportLimMaxKV,BGReportLimMinKV,
   BGAutoSS,BGAutoXF,BGAGC,AreaUnSpecifiedStudyMW,BusSlack,ConvergenceTol,
   EnforceGenMWLimits,InjGrpName,UseConstantPF,AreaInjGrpSlackPowerFactor,
   PVCQPowerFactMult,AreaInjGrpSlackEnforcePosLoad,
   AreaInjGrpSlackEnforceMWLimits,AreaInjGrpSlackEnforceAGC,DataMaintainerAssign])
{
       1 "Travis"                           "FullCase" "YES" 9999.0000   0.0000 "YES" "YES" "Part. AGC"         0.000 ""              1.00 "YES" "" "YES" 1.000000 1.000000 "NO " "NO " "NO " ""
}
DATA (Substation, [SubNum,SubName,SubID,Latitude,Longitude,DataMaintainerAssign,GICSubGroundOhms,
   GICUsedSubGroundOhms,AreaNum,AreaName])
{
       1 "Travis_DS_1" "1" 30.31230094000000000000 -97.65009148000000000000 ""     0.100000     0.100000            1 "Travis"                          
       2 "Travis_DS_2" "2" 30.33340070000000000000 -97.54395016000000000000 ""     0.100000     0.100000            1 "Travis"                          
       3 "Travis_DS_3" "3" 30.33749946000000000000 -97.61244859999998700000 ""     0.100000     0.100000            1 "Travis"                          
       4 "Travis_DS_4" "4" 30.29410465000000000000 -97.63254718000000000000 ""     0.100000     0.100000            1 "Travis"                          
       5 "Travis_DS_5" "5" 30.35766383000000000000 -97.53649316000000000000 ""     0.100000     0.100000            1 "Travis"                          
       6 "Travis_DS_6" "6" 30.34761038000000000000 -97.46639525000000000000 ""     0.100000     0.100000            1 "Travis"                          
       7 "Travis_DS_7" "7" 30.27994306000000000000 -97.67144822000000000000 ""     0.100000     0.100000            1 "Travis"                          
       8 "Travis_DS_8" "8" 30.23978251000000000000 -97.69249541000001300000 ""     0.100000     0.100000            1 "Travis"                          
       9 "Travis_DS_9" "9" 30.21698319000000000000 -97.68853357000000000000 ""     0.100000     0.100000            1 "Travis"                          
      10 "Travis_DS_10" "10" 30.22001618000000000000 -97.66573414000000000000 ""     0.100000     0.100000            1 "Travis"                          
      11 "Travis_DS_11" "11" 30.25520380000000000000 -97.59915955000000000000 ""     0.100000     0.100000            1 "Travis"                          
      12 "Travis_DS_12" "12" 30.17799796000000000000 -97.65895598000000000000 ""     0.100000     0.100000            1 "Travis"                          
      13 "Travis_DS_13" "13" 30.15036874000000000000 -97.61485367000000000000 ""     0.100000     0.100000            1 "Travis"                          
      14 "Travis_DS_14" "14" 30.21812429000000000000 -97.52286181000000000000 ""     0.100000     0.100000            1 "Travis"                          
      15 "Travis_DS_15" "15" 30.24328724000000000000 -97.77954656000000000000 ""     0.100000     0.100000            1 "Travis"                          
      16 "Travis_DS_16" "16" 30.24372334000000000000 -97.89112668999998700000 ""     0.100000     0.100000            1 "Travis"                          
      17 "Travis_DS_17" "17" 30.23164168000000000000 -97.75507394000000000000 ""     0.100000     0.100000            1 "Travis"                          
      18 "Travis_DS_18" "18" 30.21566971000000000000 -97.96182569000000000000 ""     0.100000     0.100000            1 "Travis"                          
      19 "Travis_DS_19" "19" 30.22682499000000000000 -97.92772230000000000000 ""     0.100000     0.100000            1 "Travis"                          
      20 "Travis_DS_20" "20" 30.19084643000000000000 -97.89800525000000000000 ""     0.100000     0.100000            1 "Travis"                          
      21 "Travis_DS_21" "21" 30.27995855000000000000 -97.87237124000001300000 ""     0.100000     0.100000            1 "Travis"                          
      22 "Travis_DS_22" "22" 30.24944396000000000000 -97.83346119000000000000 ""     0.100000     0.100000            1 "Travis"                          
      23 "Travis_DS_23" "23" 30.27358920000000000000 -97.82058248000000000000 ""     0.100000     0.100000            1 "Travis"                          
      24 "Travis_DS_24" "24" 30.21512200000000000000 -97.88534283000000000000 ""     0.100000     0.100000            1 "Travis"                          
      25 "Travis_DS_25" "25" 30.22888855000000000000 -97.87071202000000000000 ""     0.100000     0.100000            1 "Travis"                          
      26 "Travis_DS_26" "26" 30.22789930000000000000 -97.85282348000000000000 ""     0.100000     0.100000            1 "Travis"                          
      27 "Travis_DS_27" "27" 30.22488514000000000000 -97.80862797000000000000 ""     0.100000     0.100000            1 "Travis"                          
      28 "Travis_DS_28" "28" 30.20622511000000000000 -97.80786502000000000000 ""     0.100000     0.100000            1 "Travis"                          
      29 "Travis_DS_29" "29" 30.21711548000000000000 -97.77545163000000000000 ""     0.100000     0.100000            1 "Travis"                          
      30 "Travis_DS_30" "30" 30.20468570000000000000 -97.84181784000000000000 ""     0.100000     0.100000            1 "Travis"                          
      31 "Travis_DS_31" "31" 30.16221403000000000000 -97.85492678999998700000 ""     0.100000     0.100000            1 "Travis"                          
      32 "Travis_DS_32" "32" 30.17889347000000000000 -97.83446666000000000000 ""     0.100000     0.100000            1 "Travis"                          
      33 "Travis_DS_33" "33" 30.14243527000000000000 -97.82750775000000000000 ""     0.100000     0.100000            1 "Travis"                          
      34 "Travis_DS_34" "34" 30.19912439000000000000 -97.78926808000000000000 ""     0.100000     0.100000            1 "Travis"                          
      35 "Travis_DS_35" "35" 30.17315618000000000000 -97.79872682000000000000 ""     0.100000     0.100000            1 "Travis"                          
      36 "Travis_DS_36" "36" 30.19648889000000000000 -97.73678912000000000000 ""     0.100000     0.100000            1 "Travis"                          
      37 "Travis_DS_37" "37" 30.17845497000000000000 -97.75837082000000000000 ""     0.100000     0.100000            1 "Travis"                          
      38 "Travis_DS_38" "38" 30.20137869000000000000 -97.74770099000000000000 ""     0.100000     0.100000            1 "Travis"                          
      39 "Travis_DS_39" "39" 30.14598010000000000000 -97.78362546000000000000 ""     0.100000     0.100000            1 "Travis"                          
      40 "Travis_DS_40" "40" 30.15236882000000000000 -97.74179894000000000000 ""     0.100000     0.100000            1 "Travis"                          
      41 "Travis_DS_41" "41" 30.17502276000000000000 -97.70573709000000000000 ""     0.100000     0.100000            1 "Travis"                          
      42 "Travis_DS_42" "42" 30.06884318000000000000 -97.69137970000000000000 ""     0.100000     0.100000            1 "Travis"                          
      43 "Travis_DS_43" "43" 30.06441276000000000000 -97.66510613000000000000 ""     0.100000     0.100000            1 "Travis"                          
      44 "Travis_DS_44" "44" 30.43390980000000000000 -97.79578522000000000000 ""     0.100000     0.100000            1 "Travis"                          
      45 "Travis_DS_45" "45" 30.42012834000000000000 -97.71258005000000000000 ""     0.100000     0.100000            1 "Travis"                          
      46 "Travis_DS_46" "46" 30.42070413000000000000 -97.76967016000000000000 ""     0.100000     0.100000            1 "Travis"                          
      47 "Travis_DS_47" "47" 30.42717876000000000000 -97.74368075000000000000 ""     0.100000     0.100000            1 "Travis"                          
      48 "Travis_DS_48" "48" 30.42429051000000000000 -97.74001308000000000000 ""     0.100000     0.100000            1 "Travis"                          
      49 "Travis_DS_49" "49" 30.40683061000000000000 -97.74769651000000000000 ""     0.100000     0.100000            1 "Travis"                          
      50 "Travis_DS_50" "50" 30.39825313000000000000 -97.76132512000000000000 ""     0.100000     0.100000            1 "Travis"                          
      51 "Travis_DS_51" "51" 30.45921216000000000000 -97.68234615000000000000 ""     0.100000     0.100000            1 "Travis"                          
      52 "Travis_DS_52" "52" 30.46889660000000000000 -97.63804170000000000000 ""     0.100000     0.100000            1 "Travis"                          
      53 "Travis_DS_53" "53" 30.45074111000000000000 -97.65436610000000000000 ""     0.100000     0.100000            1 "Travis"                          
      54 "Travis_DS_54" "54" 30.48561813000000000000 -97.58027253000000000000 ""     0.100000     0.100000            1 "Travis"                          
      55 "Travis_DS_55" "55" 30.46212600000000000000 -97.58175500000000000000 ""     0.100000     0.100000            1 "Travis"                          
      56 "Travis_DS_56" "56" 30.44228085000000000000 -97.61795076999998700000 ""     0.100000     0.100000            1 "Travis"                          
      57 "Travis_DS_57" "57" 30.43347777000000000000 -97.67653588000000000000 ""     0.100000     0.100000            1 "Travis"                          
      58 "Travis_DS_58" "58" 30.42830159000000000000 -97.68990116000000000000 ""     0.100000     0.100000            1 "Travis"                          
      59 "Travis_DS_59" "59" 30.39618967000000000000 -97.66532573000000000000 ""     0.100000     0.100000            1 "Travis"                          
      60 "Travis_DS_60" "60" 30.39379669000000000000 -97.69754614000000000000 ""     0.100000     0.100000            1 "Travis"                          
      61 "Travis_DS_61" "61" 30.38176070000000000000 -97.72336366000000000000 ""     0.100000     0.100000            1 "Travis"                          
      62 "Travis_DS_62" "62" 30.38028299000000000000 -97.70981758000000000000 ""     0.100000     0.100000            1 "Travis"                          
      63 "Travis_DS_63" "63" 30.37690081000000000000 -97.68846561000000000000 ""     0.100000     0.100000            1 "Travis"                          
      64 "Travis_DS_64" "64" 30.37151516000000000000 -97.68047064000000000000 ""     0.100000     0.100000            1 "Travis"                          
      65 "Travis_DS_65" "65" 30.38893262000000000000 -97.63629709999998700000 ""     0.100000     0.100000            1 "Travis"                          
      66 "Travis_DS_66" "66" 30.36828450000000000000 -97.64484213000000000000 ""     0.100000     0.100000            1 "Travis"                          
      67 "Travis_DS_67" "67" 30.42318300000000000000 -97.63507364000000000000 ""     0.100000     0.100000            1 "Travis"                          
      68 "Travis_DS_68" "68" 30.37780140000000000000 -97.63883250000001300000 ""     0.100000     0.100000            1 "Travis"                          
      69 "Travis_DS_69" "69" 30.40075222000000000000 -98.07068477000000000000 ""     0.100000     0.100000            1 "Travis"                          
      70 "Travis_DS_70" "70" 30.54637626000000000000 -97.92148000000000000000 ""     0.100000     0.100000            1 "Travis"                          
      71 "Travis_DS_71" "71" 30.47370146000000000000 -97.50600604000000000000 ""     0.100000     0.100000            1 "Travis"                          
      72 "Travis_DS_72" "72" 30.36409560000000000000 -97.51150976000000000000 ""     0.100000     0.100000            1 "Travis"                          
      73 "Travis_DS_73" "73" 30.38794515000000000000 -97.42273957000000000000 ""     0.100000     0.100000            1 "Travis"                          
      74 "Travis_DS_74" "74" 30.28089677000000000000 -97.46312833000000000000 ""     0.100000     0.100000            1 "Travis"                          
      75 "Travis_DS_75" "75" 30.21375669000000000000 -97.56533431000000000000 ""     0.100000     0.100000            1 "Travis"                          
      76 "Travis_DS_76" "76" 30.10368588000000000000 -97.70462754000000000000 ""     0.100000     0.100000            1 "Travis"                          
      77 "Travis_DS_77" "77" 30.55223824000000000000 -97.93429816000000000000 ""     0.100000     0.100000            1 "Travis"                          
      78 "Travis_DS_78" "78" 30.34948569000000000000 -97.97427719000000000000 ""     0.100000     0.100000            1 "Travis"                          
      79 "Travis_DS_79" "79" 30.43446599000000000000 -98.06788511000000000000 ""     0.100000     0.100000            1 "Travis"                          
      80 "Travis_DS_80" "80" 30.47900299000000000000 -97.90877130000000000000 ""     0.100000     0.100000            1 "Travis"                          
      81 "Travis_DS_81" "81" 30.45191248000000000000 -97.99434615000000000000 ""     0.100000     0.100000            1 "Travis"                          
      82 "Travis_DS_82" "82" 30.44212231000000000000 -97.93076122000000000000 ""     0.100000     0.100000            1 "Travis"                          
      83 "Travis_DS_83" "83" 30.46632793000000000000 -97.84885098000000000000 ""     0.100000     0.100000            1 "Travis"                          
      84 "Travis_DS_84" "84" 30.43618204000000000000 -97.82291673000000000000 ""     0.100000     0.100000            1 "Travis"                          
      85 "Travis_DS_85" "85" 30.39242274000000000000 -98.02881032000000000000 ""     0.100000     0.100000            1 "Travis"                          
      86 "Travis_DS_86" "86" 30.39460188000000000000 -98.06762086000000000000 ""     0.100000     0.100000            1 "Travis"                          
      87 "Travis_DS_87" "87" 30.38794703000000000000 -97.98962236000000000000 ""     0.100000     0.100000            1 "Travis"                          
      88 "Travis_DS_88" "88" 30.39537617000000000000 -97.93352742000000000000 ""     0.100000     0.100000            1 "Travis"                          
      89 "Travis_DS_89" "89" 30.37377630000000000000 -97.97213587000000000000 ""     0.100000     0.100000            1 "Travis"                          
      90 "Travis_DS_90" "90" 30.37875688000000000000 -97.92587215000000000000 ""     0.100000     0.100000            1 "Travis"                          
      91 "Travis_DS_91" "91" 30.33269460000000000000 -97.98809077000000000000 ""     0.100000     0.100000            1 "Travis"                          
      92 "Travis_DS_92" "92" 30.31992509000000000000 -97.91347775000000000000 ""     0.100000     0.100000            1 "Travis"                          
      93 "Travis_DS_93" "93" 30.29828318000000000000 -97.93524021000000000000 ""     0.100000     0.100000            1 "Travis"                          
      94 "Travis_DS_94" "94" 30.39076431000000000000 -97.84817455000000000000 ""     0.100000     0.100000            1 "Travis"                          
      95 "Travis_DS_95" "95" 30.37038851000000000000 -97.89578026000000000000 ""     0.100000     0.100000            1 "Travis"                          
      96 "Travis_DS_96" "96" 30.34209259000000000000 -97.86292444000000000000 ""     0.100000     0.100000            1 "Travis"                          
      97 "Travis_DS_97" "97" 30.28908717000000000000 -98.02241579000000000000 ""     0.100000     0.100000            1 "Travis"                          
      98 "Travis_DS_98" "98" 30.29195291000000000000 -97.76823743000000000000 ""     0.100000     0.100000            1 "Travis"                          
      99 "Travis_DS_99" "99" 30.27819557000000000000 -97.72014076000001300000 ""     0.100000     0.100000            1 "Travis"                          
     100 "Travis_DS_100" "100" 30.28416420000000000000 -97.75539794000000000000 ""     0.100000     0.100000            1 "Travis"                          
     101 "Travis_DS_101" "101" 30.29484889000000000000 -97.73978133000000000000 ""     0.100000     0.100000            1 "Travis"                          
     102 "Travis_DS_102" "102" 30.27552141000000000000 -97.74411288000000000000 ""     0.100000     0.100000            1 "Travis"                          
     103 "Travis_DS_103" "103" 30.25263364000000000000 -97.75498429000000000000 ""     0.100000     0.100000            1 "Travis"                          
     104 "Travis_DS_104" "104" 30.26807583000000000000 -97.73910235000000000000 ""     0.100000     0.100000            1 "Travis"                          
     105 "Travis_DS_105" "105" 30.23616641000000000000 -97.72626466000000000000 ""     0.100000     0.100000            1 "Travis"                          
     106 "Travis_DS_106" "106" 30.29453499000000000000 -97.72841464000000000000 ""     0.100000     0.100000            1 "Travis"                          
     107 "Travis_DS_107" "107" 30.28258438000000000000 -97.70062529000000000000 ""     0.100000     0.100000            1 "Travis"                          
     108 "Travis_DS_108" "108" 30.25882400000000000000 -97.71786856999998700000 ""     0.100000     0.100000            1 "Travis"                          
     109 "Travis_DS_109" "109" 30.26460570000000000000 -97.78596965000000000000 ""     0.100000     0.100000            1 "Travis"                          
     110 "Travis_DS_110" "110" 30.31590447000000000000 -97.71883748000000000000 ""     0.100000     0.100000            1 "Travis"                          
     111 "Travis_DS_111" "111" 30.37245497000000000000 -97.79498086000000000000 ""     0.100000     0.100000            1 "Travis"                          
     112 "Travis_DS_112" "112" 30.37774666000000000000 -97.75880703999998700000 ""     0.100000     0.100000            1 "Travis"                          
     113 "Travis_DS_113" "113" 30.30261128000000000000 -97.83480657000000000000 ""     0.100000     0.100000            1 "Travis"                          
     114 "Travis_DS_114" "114" 30.34758381000000000000 -97.77339623000000000000 ""     0.100000     0.100000            1 "Travis"                          
     115 "Travis_DS_115" "115" 30.32877173000000000000 -97.80542093000000000000 ""     0.100000     0.100000            1 "Travis"                          
     116 "Travis_DS_116" "116" 30.32838739000000000000 -97.76125000000000000000 ""     0.100000     0.100000            1 "Travis"                          
     117 "Travis_DS_117" "117" 30.36787120000000000000 -97.75729195000000000000 ""     0.100000     0.100000            1 "Travis"                          
     118 "Travis_DS_118" "118" 30.35524490000000000000 -97.72755495000000000000 ""     0.100000     0.100000            1 "Travis"                          
     119 "Travis_DS_119" "119" 30.35274581000000000000 -97.74576712000000000000 ""     0.100000     0.100000            1 "Travis"                          
     120 "Travis_DS_120" "120" 30.32694842000000000000 -97.74375743000000000000 ""     0.100000     0.100000            1 "Travis"                          
     121 "Travis_DS_121" "121" 30.29096900000000000000 -97.79507160000000000000 ""     0.100000     0.100000            1 "Travis"                          
     122 "Travis_DS_122" "122" 30.31766997000000000000 -97.76331361000000000000 ""     0.100000     0.100000            1 "Travis"                          
     123 "Travis_DS_123" "123" 30.35988553000000000000 -97.70683678000000000000 ""     0.100000     0.100000            1 "Travis"                          
     124 "Travis_DS_124" "124" 30.32954208000000000000 -97.72003101999998700000 ""     0.100000     0.100000            1 "Travis"                          
     125 "Travis_DS_125" "125" 30.33718374000000000000 -97.70563537000000000000 ""     0.100000     0.100000            1 "Travis"                          
     126 "Travis_DS_126" "126" 30.34685237000000000000 -97.67662949000000000000 ""     0.100000     0.100000            1 "Travis"                          
     127 "Travis_DS_127" "127" 30.32149335000000000000 -97.68298857000000000000 ""     0.100000     0.100000            1 "Travis"                          
     128 "Travis_DS_128" "128" 30.30449023000000000000 -97.68337399000001300000 ""     0.100000     0.100000            1 "Travis"                          
     129 "Marshall Ford Power Plant" "129" 30.38990000000000000000 -97.90730000000001300000 ""     0.100000     0.100000            1 "Travis"                          
     130 "Central Utility Plant" "130" 30.39735100000000000000 -97.84258600000000000000 ""     0.100000     0.100000            1 "Travis"                          
     131 "Austin Power Plant" "131" 30.29342400000000000000 -97.78440800000000000000 ""     0.100000     0.100000            1 "Travis"                          
     132 "Weaver Power Plant" "132" 30.28670000000000000000 -97.73560000000000000000 ""     0.100000     0.100000            1 "Travis"                          
     133 "Mueller Energy Center" "133" 30.30499400000000000000 -97.70767500000000000000 ""     0.100000     0.100000            1 "Travis"                          
     134 "IKEA Solar Array" "134" 30.55704400000000000000 -97.69028600000000000000 ""     0.100000     0.100000            1 "Travis"                          
     135 "Sand Hill Power Plant" "135" 30.20980000000000000000 -97.61290000000000000000 ""     0.100000     0.100000            1 "Travis"                          
     136 "Decker Creek Power Plant" "136" 30.30330000000000000000 -97.61279999999998700000 ""     0.100000     0.100000            1 "Travis"                          
     137 "Bastrop Energy Center" "137" 30.14580000000000000000 -97.55000000000000000000 ""     0.100000     0.100000            1 "Travis"                          
     138 "Webberville Solar Project" "138" 30.23849200000000000000 -97.50881200000000000000 ""     0.100000     0.100000            1 "Travis"                          
     139 "Lost Pines 1 Power Project" "139" 30.14000000000000000000 -97.27140000000000000000 ""     0.100000     0.100000            1 "Travis"                          
     140 "Sam Gideon Power Plant" "140" 30.16000000000000000000 -97.27080000000000000000 ""     0.100000     0.100000            1 "Travis"                          
}
DATA (Limit_Monitoring_Options_Value, [VariableName,ValueField])
{
"LMS_IgnoreRadial"                 "NO"
}
DATA (LimitSet, [LSName,LSDisabled,DataMaintainerAssign,LSAmpMVA,LSEndMonitor,LSLinePercent,
   LSInterfacePercent,LSLineRateSet,LSInterfaceRateSet,LSLineRateSet:1,
   LSInterfaceRateSet:1,LSPUHigh,LSPULow,LSCtgPUHigh,LSCtgPULow,LSBusHighRateSet,
   LSBusLowRateSet,LSCtgBusHighRateSet,LSCtgBusLowRateSet])
{
"Default" "NO " "" "MVA" "Higher" 100.0000 100.0000 "A" "A" "A" "A" 1.100000 0.900000 1.100000 0.900000 "A" "A" "A" "A"
}
DATA (RatingSetNameBus, [Name,Header,Description])
{
"A" "" ""
"B" "" ""
"C" "" ""
"D" "" ""
}
DATA (RatingSetNameBranch, [Name,Header,Description])
{
"A" "" ""
"B" "" ""
"C" "" ""
"D" "" ""
"E" "" ""
"F" "" ""
"G" "" ""
"H" "" ""
"I" "" ""
"J" "" ""
"K" "" ""
"L" "" ""
"M" "" ""
"N" "" ""
"O" "" ""
}
DATA (RatingSetNameInterface, [Name,Header,Description])
{
"A" "" ""
"B" "" ""
"C" "" ""
"D" "" ""
"E" "" ""
"F" "" ""
"G" "" ""
"H" "" ""
"I" "" ""
"J" "" ""
"K" "" ""
"L" "" ""
"M" "" ""
"N" "" ""
"O" "" ""
}
DATA (Bus, [BusNum,BusName,BusNomVolt,BusSlack,BusB:1,BusG:1,BusPUVolt,BusAngle,
   DCLossMultiplier,AreaNum,ZoneNum,BANumber,OwnerNum,SubNum,BusMonEle,LSName,
   BusVoltLim,BusVoltLimLow:1,BusVoltLimLow:2,BusVoltLimLow:3,BusVoltLimLow:4,
   BusVoltLimHigh:1,BusVoltLimHigh:2,BusVoltLimHigh:3,BusVoltLimHigh:4,Latitude,
   Longitude,TopologyBusType,Priority,EMSType,EMSDeviceID,DataMaintainerAssign,
   AllLabels,GICConductance])
{
     1 "Travis_DS_1 1" 69.00000000000000000000 "NO " 0.00000000000000000000 0.00000000000000000000 1.00276326545298270000 -9.82035959983176060000 1.00000000000000000000      1      1      1      1 1 "YES" "Default" "NO " "" "" "" "" "" "" "" "" "" "" "BusbarSection" 0 "" "" "" "" ""
     2 "Travis_DS_2 1" 69.00000000000000000000 "NO " 0.00000000000000000000 0.00000000000000000000 1.01830224367138960000 -8.14922472775395460000 1.00000000000000000000      1      1      1      1 2 "YES" "Default" "NO " "" "" "" "" "" "" "" "" "" "" "BusbarSection" 0 "" "" "" "" ""
     3 "Travis_DS_3 1" 69.00000000000000000000 "NO " 0.00000000000000000000 0.00000000000000000000 1.01908572669519420000 -8.34319437035540740000 1.00000000000000000000      1      1      1      1 3 "YES" "Default" "NO " "" "" "" "" "" "" "" "" "" "" "BusbarSection" 0 "" "" "" "" ""
     4 "Travis_DS_4 1" 69.00000000000000000000 "NO " 0.00000000000000000000 0.00000000000000000000 1.01859793909382180000 -8.45067054667677700000 1.00000000000000000000      1      1      1      1 4 "YES" "Default" "NO " "" "" "" "" "" "" "" "" "" "" "BusbarSection" 0 "" "" "" "" ""
     5 "Travis_DS_5 1" 69.00000000000000000000 "NO " 0.00000000000000000000 0.00000000000000000000 1.01966434904696350000 -8.02673068226401790000 1.00000000000000000000      1      1      1      1 5 "YES" "Default" "NO " "" "" "" "" "" "" "" "" "" "" "BusbarSection" 0 "" "" "" "" ""
     6 "Travis_DS_6 1" 69.00000000000000000000 "NO " 0.00000000000000000000 0.00000000000000000000 1.01955565752795390000 -8.06432259488039680000 1.00000000000000000000      1      1      1      1 6 "YES" "Default" "NO " "" "" "" "" "" "" "" "" "" "" "BusbarSection" 0 "" "" "" "" ""
     7 "Travis_DS_7 1" 69.00000000000000000000 "NO " 0.00000000000000000000 0.00000000000000000000 1.00799684748528980000 -9.43498355688257280000 1.00000000000000000000      1      1      1      1 7 "YES" "Default" "NO " "" "" "" "" "" "" "" "" "" "" "BusbarSection" 0 "" "" "" "" ""
     8 "Travis_DS_8 1" 69.00000000000000000000 "NO " 0.00000000000000000000 0.00000000000000000000 1.00167672407917840000 -10.27188966412832000000 1.00000000000000000000      1      1      1      1 8 "YES" "Default" "NO " "" "" "" "" "" "" "" "" "" "" "BusbarSection" 0 "" "" "" "" ""
     9 "Travis_DS_9 1" 69.00000000000000000000 "NO " 0.00000000000000000000 0.00000000000000000000 1.00289276758761870000 -9.82414770052885120000 1.00000000000000000000      1      1      1      1 9 "YES" "Default" "NO " "" "" "" "" "" "" "" "" "" "" "BusbarSection" 0 "" "" "" "" ""
    10 "Travis_DS_10 1" 69.00000000000000000000 "NO " 0.00000000000000000000 0.00000000000000000000 1.00980228629690380000 -8.98826378998979970000 1.00000000000000000000      1      1      1      1 10 "YES" "Default" "NO " "" "" "" "" "" "" "" "" "" "" "BusbarSection" 0 "" "" "" "" ""
    11 "Travis_DS_11 1" 69.00000000000000000000 "NO " 0.00000000000000000000 0.00000000000000000000 1.01716027745820860000 -8.49014822280370560000 1.00000000000000000000      1      1      1      1 11 "YES" "Default" "NO " "" "" "" "" "" "" "" "" "" "" "BusbarSection" 0 "" "" "" "" ""
    12 "Travis_DS_12 1" 69.00000000000000000000 "NO " 0.00000000000000000000 0.00000000000000000000 0.99974016989611917000 -10.17081482142098400000 1.00000000000000000000      1      1      1      1 12 "YES" "Default" "NO " "" "" "" "" "" "" "" "" "" "" "BusbarSection" 0 "" "" "" "" ""
    13 "Travis_DS_13 1" 69.00000000000000000000 "NO " 0.00000000000000000000 0.00000000000000000000 1.03115906213741070000 -6.19969308755457020000 1.00000000000000000000      1      1      1      1 13 "YES" "Default" "NO " "" "" "" "" "" "" "" "" "" "" "BusbarSection" 0 "" "" "" "" ""
    14 "Travis_DS_14 1" 69.00000000000000000000 "NO " 0.00000000000000000000 0.00000000000000000000 1.01823130983875820000 -8.16330653211240580000 1.00000000000000000000      1      1      1      1 14 "YES" "Default" "NO " "" "" "" "" "" "" "" "" "" "" "BusbarSection" 0 "" "" "" "" ""
    15 "Travis_DS_15 1" 69.00000000000000000000 "NO " 0.00000000000000000000 0.00000000000000000000 0.99668736862635802000 -10.91220278637915400000 1.00000000000000000000      1      1      1      1 15 "YES" "Default" "NO " "" "" "" "" "" "" "" "" "" "" "BusbarSection" 0 "" "" "" "" ""
    16 "Travis_DS_16 1" 69.00000000000000000000 "NO " 0.00000000000000000000 0.00000000000000000000 1.00521991400068300000 -9.73909432281456770000 1.00000000000000000000      1      1      1      1 16 "YES" "Default" "NO " "" "" "" "" "" "" "" "" "" "" "BusbarSection" 0 "" "" "" "" ""
    17 "Travis_DS_17 1" 230.00000000000000000000 "NO " 0.00000000000000000000 0.00000000000000000000 1.01944522091822300000 -6.86713439169414020000 1.00000000000000000000      1      1      1      1 17 "YES" "Default" "NO " "" "" "" "" "" "" "" "" "" "" "BusbarSection" 0 "" "" "" "" ""
    18 "Travis_DS_17 2" 69.00000000000000000000 "NO " 0.00000000000000000000 0.00000000000000000000 1.00121552943741410000 -10.48063296866479000000 1.00000000000000000000      1      1      1      1 17 "YES" "Default" "NO " "" "" "" "" "" "" "" "" "" "" "BusbarSection" 0 "" "" "" "" ""
    19 "Travis_DS_17 3" 13.80000019073486400000 "NO " 0.00000000000000000000 0.00000000000000000000 0.98583796096159642000 -14.62125334101739500000 1.00000000000000000000      1      1      1      1 17 "YES" "Default" "NO " "" "" "" "" "" "" "" "" "" "" "BusbarSection" 0 "" "" "" "" ""
    20 "Travis_DS_17 4" 1.00000000000000000000 "NO " 0.00000000000000000000 0.00000000000000000000 0.98583796097619930000 -14.62125334427067800000 1.00000000000000000000      1      1      1      1 17 "YES" "Default" "NO " "" "" "" "" "" "" "" "" "" "" "BusbarSection" 0 "" "" "" "" ""
    21 "Travis_DS_18 1" 69.00000000000000000000 "NO " 0.00000000000000000000 0.00000000000000000000 1.00250233543390240000 -10.21690993247236800000 1.00000000000000000000      1      1      1      1 18 "YES" "Default" "NO " "" "" "" "" "" "" "" "" "" "" "BusbarSection" 0 "" "" "" "" ""
    22 "Travis_DS_19 1" 69.00000000000000000000 "NO " 0.00000000000000000000 0.00000000000000000000 1.00298190371158930000 -10.04989331285285900000 1.00000000000000000000      1      1      1      1 19 "YES" "Default" "NO " "" "" "" "" "" "" "" "" "" "" "BusbarSection" 0 "" "" "" "" ""
    23 "Travis_DS_20 1" 69.00000000000000000000 "NO " 0.00000000000000000000 0.00000000000000000000 0.99294030452245517000 -10.80505633089143700000 1.00000000000000000000      1      1      1      1 20 "YES" "Default" "NO " "" "" "" "" "" "" "" "" "" "" "BusbarSection" 0 "" "" "" "" ""
    24 "Travis_DS_21 1" 69.00000000000000000000 "NO " 0.00000000000000000000 0.00000000000000000000 0.99959932980779162000 -10.71283651023473000000 1.00000000000000000000      1      1      1      1 21 "YES" "Default" "NO " "" "" "" "" "" "" "" "" "" "" "BusbarSection" 0 "" "" "" "" ""
    25 "Travis_DS_22 1" 69.00000000000000000000 "NO " 0.00000000000000000000 0.00000000000000000000 0.99071283667420646000 -11.20284777209456200000 1.00000000000000000000      1      1      1      1 22 "YES" "Default" "NO " "" "" "" "" "" "" "" "" "" "" "BusbarSection" 0 "" "" "" "" ""
    26 "Travis_DS_22 2" 18.00000000000000000000 "NO " 0.00000000000000000000 0.00000000000000000000 0.99071283617537805000 -11.20284776416799400000 1.00000000000000000000      1      1      1      1 22 "YES" "Default" "NO " "" "" "" "" "" "" "" "" "" "" "BusbarSection" 0 "" "" "" "" ""
    27 "Travis_DS_22 3" 18.00000000000000000000 "NO " 0.00000000000000000000 0.00000000000000000000 0.99071283617537805000 -11.20284776416799400000 1.00000000000000000000      1      1      1      1 22 "YES" "Default" "NO " "" "" "" "" "" "" "" "" "" "" "BusbarSection" 0 "" "" "" "" ""
    28 "Travis_DS_22 4" 1.00000000000000000000 "NO " 0.00000000000000000000 0.00000000000000000000 0.99071283617537805000 -11.20284776416799400000 1.00000000000000000000      1      1      1      1 22 "YES" "Default" "NO " "" "" "" "" "" "" "" "" "" "" "BusbarSection" 0 "" "" "" "" ""
    29 "Travis_DS_23 1" 69.00000000000000000000 "NO " 0.00000000000000000000 0.00000000000000000000 0.99385641343745830000 -11.06296310673879700000 1.00000000000000000000      1      1      1      1 23 "YES" "Default" "NO " "" "" "" "" "" "" "" "" "" "" "BusbarSection" 0 "" "" "" "" ""
    30 "Travis_DS_24 1" 69.00000000000000000000 "NO " 0.00000000000000000000 0.00000000000000000000 0.99091085892659763000 -11.10784784802720800000 1.00000000000000000000      1      1      1      1 24 "YES" "Default" "NO " "" "" "" "" "" "" "" "" "" "" "BusbarSection" 0 "" "" "" "" ""
    31 "Travis_DS_25 1" 69.00000000000000000000 "NO " 0.00000000000000000000 0.00000000000000000000 1.00767202781514430000 -9.48097000075426300000 1.00000000000000000000      1      1      1      1 25 "YES" "Default" "NO " "" "" "" "" "" "" "" "" "" "" "BusbarSection" 0 "" "" "" "" ""
    32 "Travis_DS_26 1" 230.00000000000000000000 "NO " 0.00000000000000000000 0.00000000000000000000 1.01360287648074880000 -8.17234701075571330000 1.00000000000000000000      1      1      1      1 26 "YES" "Default" "NO " "" "" "" "" "" "" "" "" "" "" "BusbarSection" 0 "" "" "" "" ""
    33 "Travis_DS_26 2" 69.00000000000000000000 "NO " 0.00000000000000000000 0.00000000000000000000 1.00967981765470260000 -9.28492979572481920000 1.00000000000000000000      1      1      1      1 26 "YES" "Default" "NO " "" "" "" "" "" "" "" "" "" "" "BusbarSection" 0 "" "" "" "" ""
    34 "Travis_DS_27 1" 69.00000000000000000000 "NO " 0.00000000000000000000 0.00000000000000000000 1.00219585111552100000 -10.14332139803137600000 1.00000000000000000000      1      1      1      1 27 "YES" "Default" "NO " "" "" "" "" "" "" "" "" "" "" "BusbarSection" 0 "" "" "" "" ""
    35 "Travis_DS_28 1" 69.00000000000000000000 "NO " 0.00000000000000000000 0.00000000000000000000 0.99528101825606912000 -10.52254194580218600000 1.00000000000000000000      1      1      1      1 28 "YES" "Default" "NO " "" "" "" "" "" "" "" "" "" "" "BusbarSection" 0 "" "" "" "" ""
    36 "Travis_DS_29 1" 69.00000000000000000000 "NO " 0.00000000000000000000 0.00000000000000000000 0.99562917496887142000 -11.01164063103637100000 1.00000000000000000000      1      1      1      1 29 "YES" "Default" "NO " "" "" "" "" "" "" "" "" "" "" "BusbarSection" 0 "" "" "" "" ""
    37 "Travis_DS_30 1" 69.00000000000000000000 "NO " 0.00000000000000000000 0.00000000000000000000 1.00477425822041380000 -9.72873316952458110000 1.00000000000000000000      1      1      1      1 30 "YES" "Default" "NO " "" "" "" "" "" "" "" "" "" "" "BusbarSection" 0 "" "" "" "" ""
    38 "Travis_DS_31 1" 69.00000000000000000000 "NO " 0.00000000000000000000 0.00000000000000000000 1.00754835763483360000 -9.31254583459777410000 1.00000000000000000000      1      1      1      1 31 "YES" "Default" "NO " "" "" "" "" "" "" "" "" "" "" "BusbarSection" 0 "" "" "" "" ""
    39 "Travis_DS_32 1" 230.00000000000000000000 "NO " 0.00000000000000000000 0.00000000000000000000 1.01625283538306130000 -7.55876974560415620000 1.00000000000000000000      1      1      1      1 32 "YES" "Default" "NO " "" "" "" "" "" "" "" "" "" "" "BusbarSection" 0 "" "" "" "" ""
    40 "Travis_DS_32 2" 69.00000000000000000000 "NO " 0.00000000000000000000 0.00000000000000000000 1.01134715077818660000 -8.93766274946975870000 1.00000000000000000000      1      1      1      1 32 "YES" "Default" "NO " "" "" "" "" "" "" "" "" "" "" "BusbarSection" 0 "" "" "" "" ""
    41 "Travis_DS_33 1" 69.00000000000000000000 "NO " 0.00000000000000000000 0.00000000000000000000 0.99961895267837402000 -10.02257972816289000000 1.00000000000000000000      1      1      1      1 33 "YES" "Default" "NO " "" "" "" "" "" "" "" "" "" "" "BusbarSection" 0 "" "" "" "" ""
    42 "Travis_DS_34 1" 69.00000000000000000000 "NO " 0.00000000000000000000 0.00000000000000000000 0.99959595427415347000 -10.04214781644101800000 1.00000000000000000000      1      1      1      1 34 "YES" "Default" "NO " "" "" "" "" "" "" "" "" "" "" "BusbarSection" 0 "" "" "" "" ""
    43 "Travis_DS_35 1" 69.00000000000000000000 "NO " 0.00000000000000000000 0.00000000000000000000 1.00131922964839890000 -9.90013964476739840000 1.00000000000000000000      1      1      1      1 35 "YES" "Default" "NO " "" "" "" "" "" "" "" "" "" "" "BusbarSection" 0 "" "" "" "" ""
    44 "Travis_DS_36 1" 69.00000000000000000000 "NO " 0.00000000000000000000 0.00000000000000000000 1.00040066554813740000 -10.40306639191848000000 1.00000000000000000000      1      1      1      1 36 "YES" "Default" "NO " "" "" "" "" "" "" "" "" "" "" "BusbarSection" 0 "" "" "" "" ""
    45 "Travis_DS_37 1" 69.00000000000000000000 "NO " 0.00000000000000000000 0.00000000000000000000 0.99851737605537344000 -10.16965607645285800000 1.00000000000000000000      1      1      1      1 37 "YES" "Default" "NO " "" "" "" "" "" "" "" "" "" "" "BusbarSection" 0 "" "" "" "" ""
    46 "Travis_DS_38 1" 230.00000000000000000000 "NO " 0.00000000000000000000 0.00000000000000000000 1.01738572875847300000 -7.28063614566378620000 1.00000000000000000000      1      1      1      1 38 "YES" "Default" "NO " "" "" "" "" "" "" "" "" "" "" "BusbarSection" 0 "" "" "" "" ""
    47 "Travis_DS_38 2" 69.00000000000000000000 "NO " 0.00000000000000000000 0.00000000000000000000 1.00145327826867230000 -10.32463959077545600000 1.00000000000000000000      1      1      1      1 38 "YES" "Default" "NO " "" "" "" "" "" "" "" "" "" "" "BusbarSection" 0 "" "" "" "" ""
    48 "Travis_DS_38 3" 22.00000000000000000000 "NO " 0.00000000000000000000 0.00000000000000000000 0.98294808808712192000 -15.08724090796476800000 1.00000000000000000000      1      1      1      1 38 "YES" "Default" "NO " "" "" "" "" "" "" "" "" "" "" "BusbarSection" 0 "" "" "" "" ""
    49 "Travis_DS_38 4" 1.00000000000000000000 "NO " 0.00000000000000000000 0.00000000000000000000 0.98294808786369920000 -15.08724091147559700000 1.00000000000000000000      1      1      1      1 38 "YES" "Default" "NO " "" "" "" "" "" "" "" "" "" "" "BusbarSection" 0 "" "" "" "" ""
    50 "Travis_DS_39 1" 69.00000000000000000000 "NO " 0.00000000000000000000 0.00000000000000000000 0.99526684610538534000 -10.48445417600502900000 1.00000000000000000000      1      1      1      1 39 "YES" "Default" "NO " "" "" "" "" "" "" "" "" "" "" "BusbarSection" 0 "" "" "" "" ""
    51 "Travis_DS_40 1" 69.00000000000000000000 "NO " 0.00000000000000000000 0.00000000000000000000 0.99954811129209408000 -10.06726040784185000000 1.00000000000000000000      1      1      1      1 40 "YES" "Default" "NO " "" "" "" "" "" "" "" "" "" "" "BusbarSection" 0 "" "" "" "" ""
    52 "Travis_DS_41 1" 69.00000000000000000000 "NO " 0.00000000000000000000 0.00000000000000000000 0.99883754691660506000 -10.17801183204573800000 1.00000000000000000000      1      1      1      1 41 "YES" "Default" "NO " "" "" "" "" "" "" "" "" "" "" "BusbarSection" 0 "" "" "" "" ""
    53 "Travis_DS_42 1" 69.00000000000000000000 "NO " 0.00000000000000000000 0.00000000000000000000 1.01442849339061310000 -8.54085048743867010000 1.00000000000000000000      1      1      1      1 42 "YES" "Default" "NO " "" "" "" "" "" "" "" "" "" "" "BusbarSection" 0 "" "" "" "" ""
    54 "Travis_DS_43 1" 69.00000000000000000000 "NO " 0.00000000000000000000 0.00000000000000000000 1.01726158943012210000 -8.06168105304914430000 1.00000000000000000000      1      1      1      1 43 "YES" "Default" "NO " "" "" "" "" "" "" "" "" "" "" "BusbarSection" 0 "" "" "" "" ""
    55 "Travis_DS_44 1" 69.00000000000000000000 "NO " 0.00000000000000000000 0.00000000000000000000 0.99143247313411558000 -11.60090915333942100000 1.00000000000000000000      1      1      1      1 44 "YES" "Default" "NO " "" "" "" "" "" "" "" "" "" "" "BusbarSection" 0 "" "" "" "" ""
    56 "Travis_DS_45 1" 69.00000000000000000000 "NO " 0.00000000000000000000 0.00000000000000000000 0.99455410529585280000 -11.05017955391788500000 1.00000000000000000000      1      1      1      1 45 "YES" "Default" "NO " "" "" "" "" "" "" "" "" "" "" "BusbarSection" 0 "" "" "" "" ""
    57 "Travis_DS_46 1" 69.00000000000000000000 "NO " 0.00000000000000000000 0.00000000000000000000 0.99012037369897523000 -11.55994602935489800000 1.00000000000000000000      1      1      1      1 46 "YES" "Default" "NO " "" "" "" "" "" "" "" "" "" "" "BusbarSection" 0 "" "" "" "" ""
    58 "Travis_DS_47 1" 230.00000000000000000000 "NO " 0.00000000000000000000 0.00000000000000000000 1.01710202885573710000 -7.53727005482172540000 1.00000000000000000000      1      1      1      1 47 "YES" "Default" "NO " "" "" "" "" "" "" "" "" "" "" "BusbarSection" 0 "" "" "" "" ""
    59 "Travis_DS_47 2" 69.00000000000000000000 "NO " 0.00000000000000000000 0.00000000000000000000 0.99504654381811277000 -11.62375037123621600000 1.00000000000000000000      1      1      1      1 47 "YES" "Default" "NO " "" "" "" "" "" "" "" "" "" "" "BusbarSection" 0 "" "" "" "" ""
    60 "Travis_DS_48 1" 69.00000000000000000000 "NO " 0.00000000000000000000 0.00000000000000000000 0.99565929899817997000 -10.91933555736066200000 1.00000000000000000000      1      1      1      1 48 "YES" "Default" "NO " "" "" "" "" "" "" "" "" "" "" "BusbarSection" 0 "" "" "" "" ""
    61 "Travis_DS_49 1" 69.00000000000000000000 "NO " 0.00000000000000000000 0.00000000000000000000 0.99533049279601357000 -10.76900592307116800000 1.00000000000000000000      1      1      1      1 49 "YES" "Default" "NO " "" "" "" "" "" "" "" "" "" "" "BusbarSection" 0 "" "" "" "" ""
    62 "Travis_DS_50 1" 69.00000000000000000000 "NO " 0.00000000000000000000 0.00000000000000000000 0.99484436407308147000 -10.86237375189848000000 1.00000000000000000000      1      1      1      1 50 "YES" "Default" "NO " "" "" "" "" "" "" "" "" "" "" "BusbarSection" 0 "" "" "" "" ""
    63 "Travis_DS_51 1" 69.00000000000000000000 "NO " 0.00000000000000000000 0.00000000000000000000 0.99395888818670285000 -11.27337935885991800000 1.00000000000000000000      1      1      1      1 51 "YES" "Default" "NO " "" "" "" "" "" "" "" "" "" "" "BusbarSection" 0 "" "" "" "" ""
    64 "Travis_DS_52 1" 69.00000000000000000000 "NO " 0.00000000000000000000 0.00000000000000000000 1.00199977753931120000 -10.11686690719608300000 1.00000000000000000000      1      1      1      1 52 "YES" "Default" "NO " "" "" "" "" "" "" "" "" "" "" "BusbarSection" 0 "" "" "" "" ""
    65 "Travis_DS_53 1" 69.00000000000000000000 "NO " 0.00000000000000000000 0.00000000000000000000 0.99801155117246080000 -10.72249618429609600000 1.00000000000000000000      1      1      1      1 53 "YES" "Default" "NO " "" "" "" "" "" "" "" "" "" "" "BusbarSection" 0 "" "" "" "" ""
    66 "Travis_DS_54 1" 69.00000000000000000000 "NO " 0.00000000000000000000 0.00000000000000000000 1.01255315382907970000 -8.79908192414770050000 1.00000000000000000000      1      1      1      1 54 "YES" "Default" "NO " "" "" "" "" "" "" "" "" "" "" "BusbarSection" 0 "" "" "" "" ""
    67 "Travis_DS_55 1" 69.00000000000000000000 "NO " 0.00000000000000000000 0.00000000000000000000 1.01513608227136960000 -8.62597449605070720000 1.00000000000000000000      1      1      1      1 55 "YES" "Default" "NO " "" "" "" "" "" "" "" "" "" "" "BusbarSection" 0 "" "" "" "" ""
    68 "Travis_DS_56 1" 230.00000000000000000000 "NO " 0.00000000000000000000 0.00000000000000000000 1.01770673718282540000 -7.47657513480650880000 1.00000000000000000000      1      1      1      1 56 "YES" "Default" "NO " "" "" "" "" "" "" "" "" "" "" "BusbarSection" 0 "" "" "" "" ""
    69 "Travis_DS_56 2" 69.00000000000000000000 "NO " 0.00000000000000000000 0.00000000000000000000 1.01104107926587600000 -9.12251056136256380000 1.00000000000000000000      1      1      1      1 56 "YES" "Default" "NO " "" "" "" "" "" "" "" "" "" "" "BusbarSection" 0 "" "" "" "" ""
    70 "Travis_DS_57 1" 230.00000000000000000000 "NO " 0.00000000000000000000 0.00000000000000000000 1.01634664918203900000 -7.65402482842916740000 1.00000000000000000000      1      1      1      1 57 "YES" "Default" "NO " "" "" "" "" "" "" "" "" "" "" "BusbarSection" 0 "" "" "" "" ""
    71 "Travis_DS_57 2" 69.00000000000000000000 "NO " 0.00000000000000000000 0.00000000000000000000 1.00058709918242190000 -10.56945130306779800000 1.00000000000000000000      1      1      1      1 57 "YES" "Default" "NO " "" "" "" "" "" "" "" "" "" "" "BusbarSection" 0 "" "" "" "" ""
    72 "Travis_DS_58 1" 69.00000000000000000000 "NO " 0.00000000000000000000 0.00000000000000000000 0.99927350255499443000 -10.68547173100652000000 1.00000000000000000000      1      1      1      1 58 "YES" "Default" "NO " "" "" "" "" "" "" "" "" "" "" "BusbarSection" 0 "" "" "" "" ""
    73 "Travis_DS_59 1" 230.00000000000000000000 "NO " 0.00000000000000000000 0.00000000000000000000 1.02151918547670910000 -6.91084325724880900000 1.00000000000000000000      1      1      1      1 59 "YES" "Default" "NO " "" "" "" "" "" "" "" "" "" "" "BusbarSection" 0 "" "" "" "" ""
    74 "Travis_DS_59 2" 69.00000000000000000000 "NO " 0.00000000000000000000 0.00000000000000000000 1.00611053556816850000 -9.80970404776944770000 1.00000000000000000000      1      1      1      1 59 "YES" "Default" "NO " "" "" "" "" "" "" "" "" "" "" "BusbarSection" 0 "" "" "" "" ""
    75 "Travis_DS_60 1" 69.00000000000000000000 "NO " 0.00000000000000000000 0.00000000000000000000 0.99774522041690432000 -10.51610696805029100000 1.00000000000000000000      1      1      1      1 60 "YES" "Default" "NO " "" "" "" "" "" "" "" "" "" "" "BusbarSection" 0 "" "" "" "" ""
    76 "Travis_DS_61 1" 69.00000000000000000000 "NO " 0.00000000000000000000 0.00000000000000000000 0.99505258429703347000 -10.75629951368121900000 1.00000000000000000000      1      1      1      1 61 "YES" "Default" "NO " "" "" "" "" "" "" "" "" "" "" "BusbarSection" 0 "" "" "" "" ""
    77 "Travis_DS_62 1" 69.00000000000000000000 "NO " 0.00000000000000000000 0.00000000000000000000 0.99950880569330598000 -10.32849407335822600000 1.00000000000000000000      1      1      1      1 62 "YES" "Default" "NO " "" "" "" "" "" "" "" "" "" "" "BusbarSection" 0 "" "" "" "" ""
    78 "Travis_DS_63 1" 69.00000000000000000000 "NO " 0.00000000000000000000 0.00000000000000000000 1.00168381839255630000 -10.14521667784333400000 1.00000000000000000000      1      1      1      1 63 "YES" "Default" "NO " "" "" "" "" "" "" "" "" "" "" "BusbarSection" 0 "" "" "" "" ""
    79 "Travis_DS_64 1" 69.00000000000000000000 "NO " 0.00000000000000000000 0.00000000000000000000 1.00184168646549950000 -10.14009120715586900000 1.00000000000000000000      1      1      1      1 64 "YES" "Default" "NO " "" "" "" "" "" "" "" "" "" "" "BusbarSection" 0 "" "" "" "" ""
    80 "Travis_DS_65 1" 69.00000000000000000000 "NO " 0.00000000000000000000 0.00000000000000000000 1.00465713190688420000 -9.68031148617904510000 1.00000000000000000000      1      1      1      1 65 "YES" "Default" "NO " "" "" "" "" "" "" "" "" "" "" "BusbarSection" 0 "" "" "" "" ""
    81 "Travis_DS_66 1" 69.00000000000000000000 "NO " 0.00000000000000000000 0.00000000000000000000 1.00396694674992480000 -9.75609445074155650000 1.00000000000000000000      1      1      1      1 66 "YES" "Default" "NO " "" "" "" "" "" "" "" "" "" "" "BusbarSection" 0 "" "" "" "" ""
    82 "Travis_DS_67 1" 69.00000000000000000000 "NO " 0.00000000000000000000 0.00000000000000000000 1.00713881943704560000 -9.44597627742387970000 1.00000000000000000000      1      1      1      1 67 "YES" "Default" "NO " "" "" "" "" "" "" "" "" "" "" "BusbarSection" 0 "" "" "" "" ""
    83 "Travis_DS_68 1" 69.00000000000000000000 "NO " 0.00000000000000000000 0.00000000000000000000 1.00289607483919280000 -9.91005729749863940000 1.00000000000000000000      1      1      1      1 68 "YES" "Default" "NO " "" "" "" "" "" "" "" "" "" "" "BusbarSection" 0 "" "" "" "" ""
    84 "Travis_DS_69 1" 69.00000000000000000000 "NO " 0.00000000000000000000 0.00000000000000000000 0.97914977552564480000 -12.74380048327688500000 1.00000000000000000000      1      1      1      1 69 "YES" "Default" "NO " "" "" "" "" "" "" "" "" "" "" "BusbarSection" 0 "" "" "" "" ""
    85 "Travis_DS_70 1" 69.00000000000000000000 "NO " 0.00000000000000000000 0.00000000000000000000 0.98890314822950605000 -12.08843386968383700000 1.00000000000000000000      1      1      1      1 70 "YES" "Default" "NO " "" "" "" "" "" "" "" "" "" "" "BusbarSection" 0 "" "" "" "" ""
    86 "Travis_DS_71 1" 69.00000000000000000000 "NO " 0.00000000000000000000 0.00000000000000000000 1.01258737610737980000 -8.79053935769603710000 1.00000000000000000000      1      1      1      1 71 "YES" "Default" "NO " "" "" "" "" "" "" "" "" "" "" "BusbarSection" 0 "" "" "" "" ""
    87 "Travis_DS_72 1" 230.00000000000000000000 "NO " 0.00000000000000000000 0.00000000000000000000 1.03039061557003090000 -5.75787057297762750000 1.00000000000000000000      1      1      1      1 72 "YES" "Default" "NO " "" "" "" "" "" "" "" "" "" "" "BusbarSection" 0 "" "" "" "" ""
    88 "Travis_DS_72 2" 69.00000000000000000000 "NO " 0.00000000000000000000 0.00000000000000000000 1.02415860676755120000 -7.59643887209536260000 1.00000000000000000000      1      1      1      1 72 "YES" "Default" "NO " "" "" "" "" "" "" "" "" "" "" "BusbarSection" 0 "" "" "" "" ""
    89 "Travis_DS_73 1" 69.00000000000000000000 "NO " 0.00000000000000000000 0.00000000000000000000 1.01630744438736820000 -8.39430428803657470000 1.00000000000000000000      1      1      1      1 73 "YES" "Default" "NO " "" "" "" "" "" "" "" "" "" "" "BusbarSection" 0 "" "" "" "" ""
    90 "Travis_DS_74 1" 69.00000000000000000000 "NO " 0.00000000000000000000 0.00000000000000000000 1.01730267899303710000 -8.26956887151450240000 1.00000000000000000000      1      1      1      1 74 "YES" "Default" "NO " "" "" "" "" "" "" "" "" "" "" "BusbarSection" 0 "" "" "" "" ""
    91 "Travis_DS_75 1" 69.00000000000000000000 "NO " 0.00000000000000000000 0.00000000000000000000 1.01807037247527620000 -8.31816692936240770000 1.00000000000000000000      1      1      1      1 75 "YES" "Default" "NO " "" "" "" "" "" "" "" "" "" "" "BusbarSection" 0 "" "" "" "" ""
    92 "Travis_DS_76 1" 69.00000000000000000000 "NO " 0.00000000000000000000 0.00000000000000000000 1.00770256193072320000 -9.19638490016355580000 1.00000000000000000000      1      1      1      1 76 "YES" "Default" "NO " "" "" "" "" "" "" "" "" "" "" "BusbarSection" 0 "" "" "" "" ""
    93 "Travis_DS_77 1" 69.00000000000000000000 "NO " 0.00000000000000000000 0.00000000000000000000 0.98870884719183744000 -12.11544319756699400000 1.00000000000000000000      1      1      1      1 77 "YES" "Default" "NO " "" "" "" "" "" "" "" "" "" "" "BusbarSection" 0 "" "" "" "" ""
    94 "Travis_DS_78 1" 230.00000000000000000000 "NO " 0.00000000000000000000 0.00000000000000000000 1.01481626539094500000 -7.99503460643193340000 1.00000000000000000000      1      1      1      1 78 "YES" "Default" "NO " "" "" "" "" "" "" "" "" "" "" "BusbarSection" 0 "" "" "" "" ""
    95 "Travis_DS_78 2" 69.00000000000000000000 "NO " 0.00000000000000000000 0.00000000000000000000 1.00260056474561360000 -10.49648440662151000000 1.00000000000000000000      1      1      1      1 78 "YES" "Default" "NO " "" "" "" "" "" "" "" "" "" "" "BusbarSection" 0 "" "" "" "" ""
    96 "Travis_DS_79 1" 69.00000000000000000000 "NO " 0.00000000000000000000 0.00000000000000000000 0.97757785680539789000 -12.92265137122587400000 1.00000000000000000000      1      1      1      1 79 "YES" "Default" "NO " "" "" "" "" "" "" "" "" "" "" "BusbarSection" 0 "" "" "" "" ""
    97 "Travis_DS_80 1" 69.00000000000000000000 "NO " 0.00000000000000000000 0.00000000000000000000 0.99098754278352960000 -11.96649831832108000000 1.00000000000000000000      1      1      1      1 80 "YES" "Default" "NO " "" "" "" "" "" "" "" "" "" "" "BusbarSection" 0 "" "" "" "" ""
    98 "Travis_DS_81 1" 69.00000000000000000000 "NO " 0.00000000000000000000 0.00000000000000000000 0.97576556020233165000 -13.15792771759031800000 1.00000000000000000000      1      1      1      1 81 "YES" "Default" "NO " "" "" "" "" "" "" "" "" "" "" "BusbarSection" 0 "" "" "" "" ""
    99 "Travis_DS_82 1" 69.00000000000000000000 "NO " 0.00000000000000000000 0.00000000000000000000 0.98132161917096435000 -12.80039942890411200000 1.00000000000000000000      1      1      1      1 82 "YES" "Default" "NO " "" "" "" "" "" "" "" "" "" "" "BusbarSection" 0 "" "" "" "" ""
   100 "Travis_DS_83 1" 69.00000000000000000000 "NO " 0.00000000000000000000 0.00000000000000000000 0.98981331902993638000 -11.94222208657414900000 1.00000000000000000000      1      1      1      1 83 "YES" "Default" "NO " "" "" "" "" "" "" "" "" "" "" "BusbarSection" 0 "" "" "" "" ""
   101 "Travis_DS_84 1" 230.00000000000000000000 "NO " 0.00000000000000000000 0.00000000000000000000 1.01541089224876880000 -7.80679749664772990000 1.00000000000000000000      1      1      1      1 84 "YES" "Default" "NO " "" "" "" "" "" "" "" "" "" "" "BusbarSection" 0 "" "" "" "" ""
   102 "Travis_DS_84 2" 69.00000000000000000000 "NO " 0.00000000000000000000 0.00000000000000000000 0.99721601260164915000 -11.25206527512815800000 1.00000000000000000000      1      1      1      1 84 "YES" "Default" "NO " "" "" "" "" "" "" "" "" "" "" "BusbarSection" 0 "" "" "" "" ""
   103 "Travis_DS_85 1" 69.00000000000000000000 "NO " 0.00000000000000000000 0.00000000000000000000 0.98689241966030579000 -11.93594572597056000000 1.00000000000000000000      1      1      1      1 85 "YES" "Default" "NO " "" "" "" "" "" "" "" "" "" "" "BusbarSection" 0 "" "" "" "" ""
   104 "Travis_DS_86 1" 69.00000000000000000000 "NO " 0.00000000000000000000 0.00000000000000000000 0.97900402710782221000 -12.75696134273678400000 1.00000000000000000000      1      1      1      1 86 "YES" "Default" "NO " "" "" "" "" "" "" "" "" "" "" "BusbarSection" 0 "" "" "" "" ""
   105 "Travis_DS_87 1" 69.00000000000000000000 "NO " 0.00000000000000000000 0.00000000000000000000 0.98959797105538342000 -11.74264002571745800000 1.00000000000000000000      1      1      1      1 87 "YES" "Default" "NO " "" "" "" "" "" "" "" "" "" "" "BusbarSection" 0 "" "" "" "" ""
   106 "Travis_DS_88 1" 69.00000000000000000000 "NO " 0.00000000000000000000 0.00000000000000000000 0.99887198977897344000 -11.04206899822886100000 1.00000000000000000000      1      1      1      1 88 "YES" "Default" "NO " "" "" "" "" "" "" "" "" "" "" "BusbarSection" 0 "" "" "" "" ""
   107 "Travis_DS_89 1" 69.00000000000000000000 "NO " 0.00000000000000000000 0.00000000000000000000 0.99394868491420096000 -11.42408068112093800000 1.00000000000000000000      1      1      1      1 89 "YES" "Default" "NO " "" "" "" "" "" "" "" "" "" "" "BusbarSection" 0 "" "" "" "" ""
   108 "Travis_DS_90 1" 69.00000000000000000000 "NO " 0.00000000000000000000 0.00000000000000000000 1.00354934702281600000 -10.67947059303159400000 1.00000000000000000000      1      1      1      1 90 "YES" "Default" "NO " "" "" "" "" "" "" "" "" "" "" "BusbarSection" 0 "" "" "" "" ""
   109 "Travis_DS_91 1" 69.00000000000000000000 "NO " 0.00000000000000000000 0.00000000000000000000 1.00003833612081700000 -10.68466641370826700000 1.00000000000000000000      1      1      1      1 91 "YES" "Default" "NO " "" "" "" "" "" "" "" "" "" "" "BusbarSection" 0 "" "" "" "" ""
   110 "Travis_DS_92 1" 69.00000000000000000000 "NO " 0.00000000000000000000 0.00000000000000000000 0.99066972935503654000 -11.10586529807089600000 1.00000000000000000000      1      1      1      1 92 "YES" "Default" "NO " "" "" "" "" "" "" "" "" "" "" "BusbarSection" 0 "" "" "" "" ""
   111 "Travis_DS_93 1" 69.00000000000000000000 "NO " 0.00000000000000000000 0.00000000000000000000 0.99667935170319808000 -10.54093019063213600000 1.00000000000000000000      1      1      1      1 93 "YES" "Default" "NO " "" "" "" "" "" "" "" "" "" "" "BusbarSection" 0 "" "" "" "" ""
   112 "Travis_DS_94 1" 69.00000000000000000000 "NO " 0.00000000000000000000 0.00000000000000000000 0.99351726771018509000 -11.21985528181715200000 1.00000000000000000000      1      1      1      1 94 "YES" "Default" "NO " "" "" "" "" "" "" "" "" "" "" "BusbarSection" 0 "" "" "" "" ""
   113 "Travis_DS_95 1" 69.00000000000000000000 "NO " 0.00000000000000000000 0.00000000000000000000 0.99391734286015398000 -11.30922335024720600000 1.00000000000000000000      1      1      1      1 95 "YES" "Default" "NO " "" "" "" "" "" "" "" "" "" "" "BusbarSection" 0 "" "" "" "" ""
   114 "Travis_DS_96 1" 69.00000000000000000000 "NO " 0.00000000000000000000 0.00000000000000000000 0.99616347817385216000 -11.04829974268406100000 1.00000000000000000000      1      1      1      1 96 "YES" "Default" "NO " "" "" "" "" "" "" "" "" "" "" "BusbarSection" 0 "" "" "" "" ""
   115 "Travis_DS_97 1" 69.00000000000000000000 "NO " 0.00000000000000000000 0.00000000000000000000 0.99685501440068582000 -10.77104051227145000000 1.00000000000000000000      1      1      1      1 97 "YES" "Default" "NO " "" "" "" "" "" "" "" "" "" "" "BusbarSection" 0 "" "" "" "" ""
   116 "Travis_DS_98 1" 69.00000000000000000000 "NO " 0.00000000000000000000 0.00000000000000000000 1.00046154746817680000 -10.57666977983601600000 1.00000000000000000000      1      1      1      1 98 "YES" "Default" "NO " "" "" "" "" "" "" "" "" "" "" "BusbarSection" 0 "" "" "" "" ""
   117 "Travis_DS_99 1" 69.00000000000000000000 "NO " 0.00000000000000000000 0.00000000000000000000 1.00556086802324000000 -10.00507439070600800000 1.00000000000000000000      1      1      1      1 99 "YES" "Default" "NO " "" "" "" "" "" "" "" "" "" "" "BusbarSection" 0 "" "" "" "" ""
   118 "Travis_DS_100 1" 69.00000000000000000000 "NO " 0.00000000000000000000 0.00000000000000000000 1.00317721098146500000 -10.34543585831718400000 1.00000000000000000000      1      1      1      1 100 "YES" "Default" "NO " "" "" "" "" "" "" "" "" "" "" "BusbarSection" 0 "" "" "" "" ""
   119 "Travis_DS_101 1" 69.00000000000000000000 "NO " 0.00000000000000000000 0.00000000000000000000 1.00831847480934770000 -9.83840533660616830000 1.00000000000000000000      1      1      1      1 101 "YES" "Default" "NO " "" "" "" "" "" "" "" "" "" "" "BusbarSection" 0 "" "" "" "" ""
   120 "Travis_DS_102 1" 69.00000000000000000000 "NO " 0.00000000000000000000 0.00000000000000000000 1.00682182293066460000 -10.01833138929558700000 1.00000000000000000000      1      1      1      1 102 "YES" "Default" "NO " "" "" "" "" "" "" "" "" "" "" "BusbarSection" 0 "" "" "" "" ""
   121 "Travis_DS_103 1" 69.00000000000000000000 "NO " 0.00000000000000000000 0.00000000000000000000 1.00343446117132050000 -10.23623560578314700000 1.00000000000000000000      1      1      1      1 103 "YES" "Default" "NO " "" "" "" "" "" "" "" "" "" "" "BusbarSection" 0 "" "" "" "" ""
   122 "Travis_DS_104 1" 69.00000000000000000000 "NO " 0.00000000000000000000 0.00000000000000000000 1.00598387787316850000 -10.06204836454419400000 1.00000000000000000000      1      1      1      1 104 "YES" "Default" "NO " "" "" "" "" "" "" "" "" "" "" "BusbarSection" 0 "" "" "" "" ""
   123 "Travis_DS_105 1" 69.00000000000000000000 "NO " 0.00000000000000000000 0.00000000000000000000 1.00284231309341410000 -10.24671596766043000000 1.00000000000000000000      1      1      1      1 105 "YES" "Default" "NO " "" "" "" "" "" "" "" "" "" "" "BusbarSection" 0 "" "" "" "" ""
   124 "Travis_DS_106 1" 69.00000000000000000000 "NO " 0.00000000000000000000 0.00000000000000000000 1.00678406514620380000 -9.98646411771550980000 1.00000000000000000000      1      1      1      1 106 "YES" "Default" "NO " "" "" "" "" "" "" "" "" "" "" "BusbarSection" 0 "" "" "" "" ""
...